Version 4
SHEET 1 992 680
WIRE 688 16 176 16
WIRE 688 48 688 16
WIRE -96 80 -224 80
WIRE 64 80 -16 80
WIRE 144 80 64 80
WIRE 784 80 736 80
WIRE 864 80 784 80
WIRE 144 128 144 80
WIRE 176 128 176 16
WIRE 752 128 736 128
WIRE -224 144 -224 80
WIRE 272 160 208 160
WIRE 304 160 272 160
WIRE 752 160 752 128
WIRE 224 192 208 192
WIRE 224 224 224 192
WIRE 688 240 688 160
WIRE -224 272 -224 224
WIRE 144 272 144 224
WIRE 144 272 -224 272
WIRE -224 304 -224 272
WIRE 176 384 176 224
WIRE 688 384 688 336
WIRE 688 384 176 384
WIRE 176 416 176 384
FLAG -224 304 0
FLAG 224 224 0
FLAG 176 416 0
FLAG 752 160 0
FLAG 784 80 B_value
FLAG 64 80 ind
FLAG 272 160 L_value
SYMBOL Magnetics\\winding 176 176 R0
SYMATTR Value Nw=24
SYMATTR InstName U1
SYMBOL Magnetics\\airgap 752 288 R0
SYMATTR Value lg=0.28m Ag=31u
SYMATTR InstName U3
SYMBOL voltage -224 128 R0
WINDOW 123 0 0 Left 2
WINDOW 39 0 0 Left 2
SYMATTR InstName V1
SYMATTR Value SINE(2 48 100k 0)
SYMBOL res -112 96 R270
WINDOW 0 32 56 VTop 2
WINDOW 3 0 56 VBottom 2
SYMATTR InstName R1
SYMATTR Value 1
SYMBOL Magnetics\\reluctor_ls 720 96 R0
WINDOW 3 -150 5 Center 2
SYMATTR Value lo=47m Ao=31u
SYMATTR Value2 ur=2200 vo=1
SYMATTR InstName U2
TEXT 72 -40 Left 2 !.tran 0 500u 400u
